&aerosol_nl
 aer_drydep_list		= 'bc_a1', 'bc_a4', 'dst_a1', 'dst_a2', 'dst_a3', 'ncl_a1', 'ncl_a2', 'ncl_a3', 'num_a1', 'num_a2', 'num_a3',
         'num_a4', 'pom_a1', 'pom_a4', 'so4_a1', 'so4_a2', 'so4_a3', 'soa_a1', 'soa_a2'
 aer_wetdep_list		= 'bc_a1', 'bc_a4', 'dst_a1', 'dst_a2', 'dst_a3', 'ncl_a1', 'ncl_a2', 'ncl_a3', 'num_a1', 'num_a2', 'num_a3',
         'num_a4', 'pom_a1', 'pom_a4', 'so4_a1', 'so4_a2', 'so4_a3', 'soa_a1', 'soa_a2'
 modal_accum_coarse_exch		= .true.
 seasalt_emis_scale		= 1.00D0
 sol_factb_interstitial		= 0.1D0
 sol_facti_cloud_borne		= 1.0D0
 sol_factic_interstitial		= 0.4D0
/
&blj_nl
 do_beljaars		=  .true.  
/
&cam_history_nl
 avgflag_pertape(1)		= 'A'
 fincl1		= 'WV_pBF', 'WL_pBF', 'WI_pBF', 'SE_pBF', 'KE_pBF', 'WV_pBP', 'WL_pBP', 'WI_pBP', 'SE_pBP', 'KE_pBP', 'WV_pAP',
         'WL_pAP', 'WI_pAP', 'SE_pAP', 'KE_pAP', 'WV_pAM', 'WL_pAM', 'WI_pAM', 'SE_pAM', 'KE_pAM', 'WV_dED', 'WL_dED',
         'WI_dED', 'SE_dED', 'KE_dED', 'WV_dAP', 'WL_dAP', 'WI_dAP', 'SE_dAP', 'KE_dAP', 'WV_dAT', 'WL_dAT', 'WI_dAT',
         'SE_dAT', 'KE_dAT', 'WV_dBD', 'WL_dBD', 'WI_dBD', 'SE_dBD', 'KE_dBD', 'WV_dAF', 'WL_dAF', 'WI_dAF', 'SE_dAF',
         'KE_dAF', 'WV_dAD', 'WL_dAD', 'WI_dAD', 'SE_dAD', 'KE_dAD', 'WV_dAR', 'WL_dAR', 'WI_dAR', 'SE_dAR', 'KE_dAR',
         'WV_dBF', 'WL_dBF', 'WI_dBF', 'SE_dBF', 'KE_dBF'
 ndens		= 1
 nhtfrq		= 0
/
&cam_initfiles_nl
 bnd_topo		= '/glade/p/cesmdata/cseg/inputdata/atm/cam/topo/fv3_C96_nc3000_Co060_Fi001_MulG_PF_nullRR_Nsw042.181018.nc'
 ncdata		= '/glade/p/cesmdata/inputdata/atm/cam/inic/fv3/cami-mam3_0000-01-01_C96_L32_c141031.nc'
 use_topo_file		=  .true.  
/
&check_energy_nl
 print_energy_errors		= .false.
/
&chem_inparm
 chem_use_chemtrop		= .true.
 clim_soilw_file		= '/glade/p/cesmdata/cseg/inputdata/atm/cam/chem/trop_mozart/dvel/clim_soilw.nc'
 depvel_file		= '/glade/p/cesmdata/cseg/inputdata/atm/cam/chem/trop_mozart/dvel/depvel_monthly.nc'
 depvel_lnd_file		= '/glade/p/cesmdata/cseg/inputdata/atm/cam/chem/trop_mozart/dvel/regrid_vegetation.nc'
 drydep_srf_file		= '/glade/p/cesmdata/cseg/inputdata/atm/cam/chem/trop_mam/atmsrf_C96_181018.nc'
 exo_coldens_file		= '/glade/p/cesmdata/cseg/inputdata/atm/cam/chem/trop_mozart/phot/exo_coldens.nc'
 ext_frc_cycle_yr		= 2000
 ext_frc_specifier		= 'H2O -> /glade/p/cesmdata/cseg/inputdata/atm/cam/chem/emis/elev/H2O_emission_CH4_oxidationx2_elev_3Dmonthly_L70_2000climo_c180511.nc',
         'num_a1 -> /glade/p/cesmdata/cseg/inputdata/atm/cam/chem/emis/CMIP6_emissions_2000climo/emissions-cmip6_num_so4_a1_anthro-ene_vertical_2000climo_0.9x1.25_c20170616.nc',
         'num_a1 -> /glade/p/cesmdata/cseg/inputdata/atm/cam/chem/emis/CMIP6_emissions_2000climo/emissions-cmip6_num_a1_so4_contvolcano_vertical_2000climo_0.9x1.25_c20170724.nc',
         'num_a2 -> /glade/p/cesmdata/cseg/inputdata/atm/cam/chem/emis/CMIP6_emissions_2000climo/emissions-cmip6_num_a2_so4_contvolcano_vertical_2000climo_0.9x1.25_c20170724.nc',
         'SO2 ->    /glade/p/cesmdata/cseg/inputdata/atm/cam/chem/emis/CMIP6_emissions_2000climo/emissions-cmip6_SO2_contvolcano_vertical_2000climo_0.9x1.25_c20170322.nc ',
         'so4_a1 -> /glade/p/cesmdata/cseg/inputdata/atm/cam/chem/emis/CMIP6_emissions_2000climo/emissions-cmip6_so4_a1_anthro-ene_vertical_2000climo_0.9x1.25_c20170616.nc',
         'so4_a1 -> /glade/p/cesmdata/cseg/inputdata/atm/cam/chem/emis/CMIP6_emissions_2000climo/emissions-cmip6_so4_a1_contvolcano_vertical_2000climo_0.9x1.25_c20170724.nc',
         'so4_a2 -> /glade/p/cesmdata/cseg/inputdata/atm/cam/chem/emis/CMIP6_emissions_2000climo/emissions-cmip6_so4_a2_contvolcano_vertical_2000climo_0.9x1.25_c20170724.nc'
 ext_frc_type		= 'CYCLICAL'
 fstrat_list		= ' '
 rsf_file		= '/glade/p/cesmdata/cseg/inputdata/atm/waccm/phot/RSF_GT200nm_v3.0_c080811.nc'
 season_wes_file		= '/glade/p/cesmdata/cseg/inputdata/atm/cam/chem/trop_mozart/dvel/season_wes.nc'
 srf_emis_cycle_yr		= 2000
 srf_emis_specifier		= 'bc_a4 ->  /glade/p/cesmdata/cseg/inputdata/atm/cam/chem/emis/CMIP6_emissions_2000climo/emissions-cmip6_bc_a4_anthro_surface_2000climo_0.9x1.25_c20170608.nc',
         'bc_a4 ->  /glade/p/cesmdata/cseg/inputdata/atm/cam/chem/emis/CMIP6_emissions_2000climo/emissions-cmip6_bc_a4_bb_surface_2000climo_0.9x1.25_c20170322.nc',
         'DMS ->    /glade/p/cesmdata/cseg/inputdata/atm/cam/chem/emis/CMIP6_emissions_2000climo/emissions-cmip6_DMS_bb_surface_2000climo_0.9x1.25_c20170322.nc',
         'DMS ->    /glade/p/cesmdata/cseg/inputdata/atm/cam/chem/emis/CMIP6_emissions_2000climo/emissions-cmip6_DMS_other_surface_2000climo_0.9x1.25_c20170322.nc',
         'num_a1 -> /glade/p/cesmdata/cseg/inputdata/atm/cam/chem/emis/CMIP6_emissions_2000climo/emissions-cmip6_num_so4_a1_bb_surface_2000climo_0.9x1.25_c20170322.nc',
         'num_a1 -> /glade/p/cesmdata/cseg/inputdata/atm/cam/chem/emis/CMIP6_emissions_2000climo/emissions-cmip6_num_so4_a1_anthro-ag-ship_surface_2000climo_0.9x1.25_c20170616.nc',
         'num_a2 -> /glade/p/cesmdata/cseg/inputdata/atm/cam/chem/emis/CMIP6_emissions_2000climo/emissions-cmip6_num_so4_a2_anthro-res_surface_2000climo_0.9x1.25_c20170616.nc',
         'num_a4 -> /glade/p/cesmdata/cseg/inputdata/atm/cam/chem/emis/CMIP6_emissions_2000climo/emissions-cmip6_num_bc_a4_bb_surface_2000climo_0.9x1.25_c20170322.nc',
         'num_a4 -> /glade/p/cesmdata/cseg/inputdata/atm/cam/chem/emis/CMIP6_emissions_2000climo/emissions-cmip6_num_bc_a4_anthro_surface_2000climo_0.9x1.25_c20170608.nc',
         'num_a4 -> /glade/p/cesmdata/cseg/inputdata/atm/cam/chem/emis/CMIP6_emissions_2000climo/emissions-cmip6_num_pom_a4_anthro_surface_2000climo_0.9x1.25_c20170608.nc',
         'num_a4 -> /glade/p/cesmdata/cseg/inputdata/atm/cam/chem/emis/CMIP6_emissions_2000climo/emissions-cmip6_num_pom_a4_bb_surface_2000climo_0.9x1.25_c20170509.nc',
         'pom_a4 -> /glade/p/cesmdata/cseg/inputdata/atm/cam/chem/emis/CMIP6_emissions_2000climo/emissions-cmip6_pom_a4_anthro_surface_2000climo_0.9x1.25_c20170608.nc',
         'pom_a4 -> /glade/p/cesmdata/cseg/inputdata/atm/cam/chem/emis/CMIP6_emissions_2000climo/emissions-cmip6_pom_a4_bb_surface_2000climo_0.9x1.25_c20170322.nc ',
         'SO2 ->    /glade/p/cesmdata/cseg/inputdata/atm/cam/chem/emis/CMIP6_emissions_2000climo/emissions-cmip6_SO2_anthro-ag-ship-res_surface_2000climo_0.9x1.25_c20170616.nc',
         'SO2 ->    /glade/p/cesmdata/cseg/inputdata/atm/cam/chem/emis/CMIP6_emissions_2000climo/emissions-cmip6_SO2_anthro-ene_surface_2000climo_0.9x1.25_c20170616.nc',
         'SO2 ->    /glade/p/cesmdata/cseg/inputdata/atm/cam/chem/emis/CMIP6_emissions_2000climo/emissions-cmip6_SO2_bb_surface_2000climo_0.9x1.25_c20170322.nc',
         'so4_a1 -> /glade/p/cesmdata/cseg/inputdata/atm/cam/chem/emis/CMIP6_emissions_2000climo/emissions-cmip6_so4_a1_anthro-ag-ship_surface_2000climo_0.9x1.25_c20170616.nc',
         'so4_a1 -> /glade/p/cesmdata/cseg/inputdata/atm/cam/chem/emis/CMIP6_emissions_2000climo/emissions-cmip6_so4_a1_bb_surface_2000climo_0.9x1.25_c20170322.nc',
         'so4_a2 -> /glade/p/cesmdata/cseg/inputdata/atm/cam/chem/emis/CMIP6_emissions_2000climo/emissions-cmip6_so4_a2_anthro-res_surface_2000climo_0.9x1.25_c20170616.nc',
         'SOAG ->   /glade/p/cesmdata/cseg/inputdata/atm/cam/chem/emis/CMIP6_emissions_2000climo/emissions-cmip6_SOAGx1.5_anthro_surface_2000climo_0.9x1.25_c20170608.nc',
         'SOAG ->   /glade/p/cesmdata/cseg/inputdata/atm/cam/chem/emis/CMIP6_emissions_2000climo/emissions-cmip6_SOAGx1.5_bb_surface_2000climo_0.9x1.25_c20170322.nc',
         'SOAG ->   /glade/p/cesmdata/cseg/inputdata/atm/cam/chem/emis/CMIP6_emissions_2000climo/emissions-cmip6_SOAGx1.5_biogenic_surface_2000climo_0.9x1.25_c20170322.nc'
 srf_emis_type		= 'CYCLICAL'
 tracer_cnst_cycle_yr		=    2000                                                           
 tracer_cnst_datapath		= '/glade/p/cesmdata/cseg/inputdata/atm/cam/ozone'
 tracer_cnst_file		= 'tracer_cnst_CAM6chem_2000climo_3D_monthly_c171004.nc'
 tracer_cnst_filelist		= ''
 tracer_cnst_specifier		= 'O3','OH','NO3','HO2'
 tracer_cnst_type		= 'CYCLICAL'
 xactive_prates		= .false.
 xs_long_file		= '/glade/p/cesmdata/cseg/inputdata/atm/waccm/phot/temp_prs_GT200nm_JPL10_c140624.nc'
/
&chem_surfvals_nl
 flbc_cycle_yr		=   2000                                
 flbc_file		= '/glade/p/cesmdata/cseg/inputdata/atm/waccm/lb/LBC_2000climo_CMIP6_0p5degLat_c180227.nc'
 flbc_list		= 'CO2','CH4','N2O','CFC11eq','CFC12'
 flbc_type		= 'CYCLICAL'
 scenario_ghg		= 'CHEM_LBC_FILE'
/
&cldfrc2m_nl
 cldfrc2m_do_subgrid_growth		= .true.
 cldfrc2m_rhmaxi		=   1.0D0  
 cldfrc2m_rhmaxis		=   1.0D0  
 cldfrc2m_rhmini		=   0.80D0  
 cldfrc2m_rhminis		=   1.0D0 
/
&cldfrc_nl
 cldfrc_dp1		=  0.10D0 
 cldfrc_dp2		=  500.0D0 
 cldfrc_freeze_dry		= .true.
 cldfrc_ice		= .true.
 cldfrc_icecrit		=  0.93D0 
 cldfrc_iceopt		=  5 
 cldfrc_premib		=  700.0D2 
 cldfrc_premit		=  75000.0D0 
 cldfrc_rhminh		=  0.800D0 
 cldfrc_rhminl		=  0.950D0 
 cldfrc_rhminl_adj_land		=  0.000D0 
 cldfrc_sh1		=  0.07D0 
 cldfrc_sh2		=  500.0D0 
/
&clubb_his_nl
 clubb_history		=  .false. 
 clubb_rad_history		=  .false. 
/
&clubb_params_nl
 clubb_beta		=  2.4     
 clubb_c11		=  0.7D0   
 clubb_c11b		=  0.35D0  
 clubb_c14		=  2.2D0   
 clubb_c2rt		=  1.0     
 clubb_c2rtthl		=  1.3     
 clubb_c2thl		=  1.0     
 clubb_c7		=  0.5     
 clubb_c7b		=  0.5     
 clubb_c8		=  4.2     
 clubb_c_k10		=  0.5     
 clubb_c_k10h		=  0.3     
 clubb_do_liqsupersat		=  .false. 
 clubb_gamma_coef		=  0.308   
 clubb_l_lscale_plume_centered		=  .false. 
 clubb_l_use_ice_latent		=  .false.  
 clubb_lambda0_stability_coef		=  0.04    
 clubb_mult_coef		=  1.0D0   
 clubb_skw_denom_coef		=  0.0     
/
&clubbpbl_diff_nl
 clubb_cloudtop_cooling		=  .false. 
 clubb_expldiff		=  .true.  
 clubb_rainevap_turb		=  .false. 
 clubb_rnevap_effic		=  1.0D0   
 clubb_stabcorrect		=  .false. 
 clubb_timestep		=  300.0D0 
/
&conv_water_nl
 conv_water_frac_limit		=  0.01d0  
 conv_water_in_rad		=  1 
/
&dust_nl
 dust_emis_fact		= 0.35D0
 soil_erod_file		= '/glade/p/cesmdata/cseg/inputdata/atm/cam/dst/dst_source2x2tunedcam6-2x2-04062017.nc'
/
&dyn_fv3_inparm
 fv3_qsize_condensate_loading		= 5
/
&fms_nml
 clock_grain		= 'LOOP'
 domains_stack_size		= 900000
 print_memory_usage		= .true.
/
&fv_core_nml
 adiabatic		=  .F.       
 adjust_dry_mass		=  .F.       
 beta		=  0         
 consv_am		=  .F.       
 consv_te		= 0
 d2_bg		=  0         
 d2_bg_k1		=  0.15D0   
 d2_bg_k2		=  0.02D0   
 d4_bg		=  0.15D0   
 d_con		=  0         
 d_ext		=  0         
 dddmp		=  0.0       
 delt_max		=  0.0       
 dnats		=  0         
 do_held_suarez		=  .F.       
 do_sat_adj		=  .F.       
 do_vort_damp		=  .F.       
 dwind_2d		=  .F.       
 external_ic		=  .F.       
 fill		=  .T.       
 fv_debug		=  .F.       
 fv_land		=  .F.       
 fv_sg_adj		= 0
 gfs_phil		=  .F.       
 grid_type		=  0         
 hord_dp		=  -10        
 hord_mt		=  10         
 hord_tm		=  10         
 hord_tr		=  8          
 hord_vt		=  10         
 hydrostatic		=  .T.       
 io_layout		=  1,1       
 k_split		=  2         
 ke_bg		=  0         
 kord_mt		=  9         
 kord_tm		=  -9        
 kord_tr		=  9         
 kord_wz		=  9         
 layout		= 6,12
 make_nh		=  .F.       
 mountain		=  .F.       
 n_split		=  6         
 n_sponge		=  0         
 na_init		=  0         
 ncep_ic		=  .F.       
 nggps_ic		=  .F.       
 no_dycore		= .false.
 nord		=  3         
 npx		=  97        
 npy		=  97        
 npz		= 32
 ntiles		=  6         
 nudge_ic		=  .F.       
 nudge_qv		=  .F.       
 nwat		= 5
 print_freq		=  1         
 range_warn		=  .F.       
 reset_eta		=  .F.       
 rf_cutoff		=  750       
 tau		=  10        
 vtdm4		=  0.0       
 warm_start		=  .F.       
 z_tracer		=  .F.       
/
&gw_drag_nl
 effgw_rdg_beta		= 1.0D0
 effgw_rdg_beta_max		= 1.0D0
 fcrit2		= 1.0
 gw_apply_tndmax		= .true. 
 gw_dc		= 0.D0
 gw_dc_long		= 0.D0
 gw_limit_tau_without_eff		= .false.
 gw_lndscl_sgh		= .true. 
 gw_oro_south_fac		= 1.d0   
 gw_prndl		= 0.5D0
 n_rdg_beta		= 10
 pgwv		= 0
 pgwv_long		= 0
 rdg_beta_cd_llb		= 1.0D0
 tau_0_ubc		= .false.
 trpd_leewv_rdg_beta		= .false.
 use_gw_rdg_beta		= .true.
 use_gw_rdg_gamma		= .false.
/
&gw_rdg_nl
 gw_rdg_c_betamax_ds		=  0.0d0  
 gw_rdg_c_betamax_sm		=  2.0d0  
 gw_rdg_c_gammamax		=  2.0d0  
 gw_rdg_do_adjust_tauoro		= .true.  
 gw_rdg_do_backward_compat		= .false.
 gw_rdg_do_divstream		= .true.
 gw_rdg_do_smooth_regimes		= .false. 
 gw_rdg_fr_c		= 1.0D0
 gw_rdg_frx0		=  2.0d0  
 gw_rdg_frx1		=  3.0d0  
 gw_rdg_orohmin		=  0.01d0 
 gw_rdg_orom2min		=  0.1d0  
 gw_rdg_orostratmin		=  0.002d0
 gw_rdg_orovmin		=  1.0d-3 
/
&main_nml
 days		= 0          
 dt_atmos		= 1800
 fv_calendar		= 'NOLEAP'
 hours		= 0          
 memuse_interval		= 48         
 minutes		= 0          
 months		= 0          
 restart_interval		= 1,0,0,0,0,0
 seconds		= 1800
/
&micro_mg_nl
 micro_do_sb_physics		= .false.
 micro_mg_adjust_cpt		= .false.
 micro_mg_berg_eff_factor		=   1.0D0    
 micro_mg_dcs		=                                  500.D-6    
 micro_mg_num_steps		=                                  1          
 micro_mg_precip_frac_method		= 'in_cloud'
 micro_mg_sub_version		=                                  0          
 micro_mg_version		=                                  2          
/
&modal_aer_opt_nl
 water_refindex_file		= '/glade/p/cesmdata/cseg/inputdata/atm/cam/physprops/water_refindex_rrtmg_c080910.nc'
/
&nucleate_ice_nl
 nucleate_ice_incloud		= .false.
 nucleate_ice_strat		= 1.0D0
 nucleate_ice_subgrid		= 1.2D0
 nucleate_ice_subgrid_strat		= 1.2D0
 nucleate_ice_use_troplev		= .true.
 use_preexisting_ice		= .true.
/
&phys_ctl_nl
 cam_chempkg		= 'trop_mam4'
 cam_physpkg		= 'cam6'
 cld_macmic_num_steps		=  3 
 deep_scheme		= 'ZM'
 do_clubb_sgs		=  .true.  
 eddy_scheme		= 'CLUBB_SGS'
 history_aero_optics		=           .false.  
 history_aerosol		=               .false.  
 history_amwg		=                  .true.   
 history_budget		=                .false.  
 history_chemistry		=             .true.   
 history_chemspecies_srf		=       .true.   
 history_clubb		=                 .true.   
 history_eddy		=                  .false.  
 history_vdiag		=                 .false.  
 history_waccm		=                 .false.  
 history_waccmx		=                .false.  
 macrop_scheme		= 'CLUBB_SGS'
 microp_scheme		= 'MG'
 radiation_scheme		= 'rrtmg'
 shallow_scheme		= 'CLUBB_SGS'
 srf_flux_avg		= 0
 use_gw_convect_dp		= .false.
 use_gw_convect_sh		= .false.
 use_gw_front		= .false.
 use_gw_front_igw		= .false.
 use_gw_oro		= .false.
 use_hetfrz_classnuc		= .true.
 use_simple_phys		= .false.
 use_subcol_microp		= .false.
 waccmx_opt		= 'off'
/
&prescribed_ozone_nl
 prescribed_ozone_cycle_yr		=    2000                                                           
 prescribed_ozone_datapath		= '/glade/p/cesmdata/cseg/inputdata/atm/cam/ozone'
 prescribed_ozone_file		= 'ozone_strataero_CAM6chem_2000climo_zm_5day_c171004.nc'
 prescribed_ozone_name		= 'O3'
 prescribed_ozone_type		= 'CYCLICAL'
/
&prescribed_strataero_nl
 prescribed_strataero_cycle_yr		=    2000                                                           
 prescribed_strataero_datapath		= '/glade/p/cesmdata/cseg/inputdata/atm/cam/ozone'
 prescribed_strataero_file		= 'ozone_strataero_CAM6chem_2000climo_zm_5day_c171004.nc'
 prescribed_strataero_type		= 'CYCLICAL'
 prescribed_strataero_use_chemtrop		= .false.
/
&qneg_nl
 print_qneg_warn		= 'summary'
/
&rad_cnst_nl
 icecldoptics		= 'mitchell'
 iceopticsfile		= '/glade/p/cesmdata/cseg/inputdata/atm/cam/physprops/iceoptics_c080917.nc'
 liqcldoptics		= 'gammadist'
 liqopticsfile		= '/glade/p/cesmdata/cseg/inputdata/atm/cam/physprops/F_nwvl200_mu20_lam50_res64_t298_c080428.nc'
 mode_defs		= 'mam4_mode1:accum:=', 'A:num_a1:N:num_c1:num_mr:+',
         'A:so4_a1:N:so4_c1:sulfate:/glade/p/cesmdata/cseg/inputdata/atm/cam/physprops/sulfate_rrtmg_c080918.nc:+', 'A:pom_a1:N:pom_c1:p-organic:/glade/p/cesmdata/cseg/inputdata/atm/cam/physprops/ocpho_rrtmg_c130709.nc:+',
         'A:soa_a1:N:soa_c1:s-organic:/glade/p/cesmdata/cseg/inputdata/atm/cam/physprops/ocphi_rrtmg_c100508.nc:+', 'A:bc_a1:N:bc_c1:black-c:/glade/p/cesmdata/cseg/inputdata/atm/cam/physprops/bcpho_rrtmg_c100508.nc:+',
         'A:dst_a1:N:dst_c1:dust:/glade/p/cesmdata/cseg/inputdata/atm/cam/physprops/dust_aeronet_rrtmg_c141106.nc:+', 'A:ncl_a1:N:ncl_c1:seasalt:/glade/p/cesmdata/cseg/inputdata/atm/cam/physprops/ssam_rrtmg_c100508.nc',
         'mam4_mode2:aitken:=', 'A:num_a2:N:num_c2:num_mr:+',
         'A:so4_a2:N:so4_c2:sulfate:/glade/p/cesmdata/cseg/inputdata/atm/cam/physprops/sulfate_rrtmg_c080918.nc:+', 'A:soa_a2:N:soa_c2:s-organic:/glade/p/cesmdata/cseg/inputdata/atm/cam/physprops/ocphi_rrtmg_c100508.nc:+',
         'A:ncl_a2:N:ncl_c2:seasalt:/glade/p/cesmdata/cseg/inputdata/atm/cam/physprops/ssam_rrtmg_c100508.nc:+', 'A:dst_a2:N:dst_c2:dust:/glade/p/cesmdata/cseg/inputdata/atm/cam/physprops/dust_aeronet_rrtmg_c141106.nc',
         'mam4_mode3:coarse:=', 'A:num_a3:N:num_c3:num_mr:+',
         'A:dst_a3:N:dst_c3:dust:/glade/p/cesmdata/cseg/inputdata/atm/cam/physprops/dust_aeronet_rrtmg_c141106.nc:+', 'A:ncl_a3:N:ncl_c3:seasalt:/glade/p/cesmdata/cseg/inputdata/atm/cam/physprops/ssam_rrtmg_c100508.nc:+',
         'A:so4_a3:N:so4_c3:sulfate:/glade/p/cesmdata/cseg/inputdata/atm/cam/physprops/sulfate_rrtmg_c080918.nc', 'mam4_mode4:primary_carbon:=',
         'A:num_a4:N:num_c4:num_mr:+', 'A:pom_a4:N:pom_c4:p-organic:/glade/p/cesmdata/cseg/inputdata/atm/cam/physprops/ocpho_rrtmg_c130709.nc:+',
         'A:bc_a4:N:bc_c4:black-c:/glade/p/cesmdata/cseg/inputdata/atm/cam/physprops/bcpho_rrtmg_c100508.nc'
 rad_climate		= 'A:Q:H2O', 'N:O2:O2',
         'N:CO2:CO2', 'N:ozone:O3',
         'N:N2O:N2O', 'N:CH4:CH4',
         'N:CFC11:CFC11', 'N:CFC12:CFC12',
         'M:mam4_mode1:/glade/p/cesmdata/cseg/inputdata/atm/cam/physprops/mam4_mode1_rrtmg_aeronetdust_sig1.6_dgnh.48_c140304.nc', 'M:mam4_mode2:/glade/p/cesmdata/cseg/inputdata/atm/cam/physprops/mam4_mode2_rrtmg_aitkendust_c141106.nc',
         'M:mam4_mode3:/glade/p/cesmdata/cseg/inputdata/atm/cam/physprops/mam4_mode3_rrtmg_aeronetdust_sig1.2_dgnl.40_c150219.nc', 'M:mam4_mode4:/glade/p/cesmdata/cseg/inputdata/atm/cam/physprops/mam4_mode4_rrtmg_c130628.nc',
         'N:VOLC_MMR1:/glade/p/cesmdata/cseg/inputdata/atm/cam/physprops/volc_camRRTMG_byradius_sigma1.6_mode1_c170214.nc', 'N:VOLC_MMR2:/glade/p/cesmdata/cseg/inputdata/atm/cam/physprops/volc_camRRTMG_byradius_sigma1.6_mode2_c170214.nc',
         'N:VOLC_MMR3:/glade/p/cesmdata/cseg/inputdata/atm/cam/physprops/volc_camRRTMG_byradius_sigma1.2_mode3_c170214.nc'
/
&ref_pres_nl
 clim_modal_aero_top_press		=  1.D-4 
 do_molec_press		=  0.1D0 
 molec_diff_bot_press		=  50.D0 
 trop_cloud_top_press		=       1.D2 
/
&solar_data_opts
 solar_data_type		= 'FIXED'
 solar_data_ymd		=     20000101                                             
 solar_htng_spctrl_scl		= .true.
 solar_irrad_data_file		= '/glade/p/cesmdata/cseg/inputdata/atm/cam/solar/SolarForcing1995-2005avg_c160929.nc'
/
&tms_nl
 do_tms		=  .false. 
/
&tropopause_nl
 tropopause_climo_file		= '/glade/p/cesmdata/cseg/inputdata/atm/cam/chem/trop_mozart/ub/clim_p_trop.nc'
/
&vert_diff_nl
 diff_cnsrv_mass_check		=  .false. 
 do_iss		=  .true.  
/
&wetdep_inparm
 gas_wetdep_list		= 'H2O2','H2SO4','SO2'
 gas_wetdep_method		= 'NEU'
/
&zmconv_nl
 zmconv_c0_lnd		=  0.0075D0 
 zmconv_c0_ocn		=  0.0300D0 
 zmconv_ke		=  3.0E-6 
 zmconv_ke_lnd		=  1.0E-5 
 zmconv_microp		=  .false. 
 zmconv_momcd		=  0.7000D0 
 zmconv_momcu		=  0.7000D0 
 zmconv_num_cin		=  1       
 zmconv_org		=  .false. 
/
